Version 4
SHEET 1 1364 680
WIRE 64 208 -48 208
WIRE 512 208 464 208
WIRE 640 208 576 208
WIRE 816 208 768 208
WIRE 944 208 880 208
WIRE -48 240 -48 208
WIRE 112 256 80 256
WIRE 224 256 192 256
WIRE 320 256 224 256
WIRE 464 256 464 208
WIRE 464 256 320 256
WIRE 640 256 640 208
WIRE 768 256 768 208
WIRE 768 256 640 256
WIRE 944 256 944 208
WIRE 1040 256 944 256
WIRE 1136 256 1040 256
WIRE 1264 256 1136 256
WIRE 1296 256 1264 256
WIRE 224 304 224 256
WIRE 320 304 320 256
WIRE 464 304 464 256
WIRE 512 304 464 304
WIRE 640 304 640 256
WIRE 640 304 592 304
WIRE 768 304 768 256
WIRE 816 304 768 304
WIRE 944 304 944 256
WIRE 944 304 896 304
WIRE 1040 304 1040 256
WIRE 1136 304 1136 256
WIRE 1264 304 1264 256
WIRE -48 352 -48 320
WIRE 224 432 224 384
WIRE 320 432 320 368
WIRE 320 432 224 432
WIRE 1040 432 1040 384
WIRE 1040 432 320 432
WIRE 1136 432 1136 368
WIRE 1136 432 1040 432
WIRE 1264 432 1264 384
WIRE 1040 464 1040 432
FLAG -48 352 0
FLAG 64 208 Vin
FLAG 80 256 Vin
FLAG 1264 432 0
FLAG 1296 256 Vout
FLAG 1040 464 0
SYMBOL voltage -48 224 R0
SYMATTR InstName V1
SYMATTR Value SINE(0 1 400Meg)
SYMATTR Value2 AC 1
SYMBOL res 208 240 R90
WINDOW 0 0 56 VBottom 2
WINDOW 3 32 56 VTop 2
SYMATTR InstName R1
SYMATTR Value 50
SYMBOL ind 208 288 R0
SYMATTR InstName L1
SYMATTR Value {L}
SYMBOL cap 304 304 R0
SYMATTR InstName C1
SYMATTR Value 602p
SYMBOL ind 800 320 R270
WINDOW 0 32 56 VTop 2
WINDOW 3 5 56 VBottom 2
SYMATTR InstName L2
SYMATTR Value 7.9n
SYMBOL cap 816 224 R270
WINDOW 0 32 32 VTop 2
WINDOW 3 0 32 VBottom 2
SYMATTR InstName C3
SYMATTR Value 1.9p
SYMBOL ind 496 320 R270
WINDOW 0 32 56 VTop 2
WINDOW 3 5 56 VBottom 2
SYMATTR InstName L3
SYMATTR Value 71n
SYMBOL cap 512 224 R270
WINDOW 0 32 32 VTop 2
WINDOW 3 0 32 VBottom 2
SYMATTR InstName C5
SYMATTR Value 17p
SYMBOL res 1248 288 R0
SYMATTR InstName R2
SYMATTR Value 50
SYMBOL ind 1024 288 R0
SYMATTR InstName L4
SYMATTR Value {L}
SYMBOL cap 1120 304 R0
SYMATTR InstName C7
SYMATTR Value 602p
TEXT 152 152 Left 2 !.ac dec 100 100k 100t
TEXT 192 192 Left 2 !.param L 0.22n
